ELMER SOLVER (v 8.4) STARTED AT: 2020/10/01 14:13:53
ParCommInit:  Initialize #PEs:            1
MAIN: 
MAIN: =============================================================
MAIN: ElmerSolver finite element software, Welcome!
MAIN: This program is free software licensed under (L)GPL
MAIN: Copyright 1st April 1995 - , CSC - IT Center for Science Ltd.
MAIN: Webpage http://www.csc.fi/elmer, Email elmeradm@csc.fi
MAIN: Version: 8.4 (Rev: Release, Compiled: 2020-08-03)
MAIN:  Running one task without MPI parallelization.
MAIN:  Running with just one thread per task.
MAIN:  Lua interpreted linked in.
MAIN: =============================================================
LoadInputFile: Reading only "Run Control" section
MAIN: 
MAIN: 
MAIN: -------------------------------------
MAIN: Reading Model: case.sif
LoadInputFile: Scanning input file: case.sif
LoadInputFile: Scanning only size info
LoadInputFile: First time visiting
LoadInputFile: Reading base load of sif file
LoadInputFile: Loading input file: case.sif
LoadInputFile: Reading base load of sif file
Model Input:  Unlisted keyword: [optimize node ordering] in section: [solver 4]
LoadInputFile: Number of BCs: 1
LoadInputFile: Number of Body Forces: 1
LoadInputFile: Number of Initial Conditions: 0
LoadInputFile: Number of Materials: 2
LoadInputFile: Number of Equations: 1
LoadInputFile: Number of Solvers: 4
LoadInputFile: Number of Bodies: 2
Loading user function library: [MagnetoDynamics2D]...[MagnetoDynamics2DHarmonic_Init0]
Loading user function library: [MagnetoDynamics]...[MagnetoDynamicsCalcFields_Init0]
Loading user function library: [ResultOutputSolve]...[ResultOutputSolver_Init0]
Loading user function library: [SaveData]...[SaveLine_Init0]
LoadMesh: Base mesh name: ./.
MAIN: -------------------------------------
Loading user function library: [MagnetoDynamics2D]...[MagnetoDynamics2DHarmonic_Init]
Loading user function library: [MagnetoDynamics2D]...[MagnetoDynamics2DHarmonic_bulk]
Loading user function library: [MagnetoDynamics2D]...[MagnetoDynamics2DHarmonic]
OptimizeBandwidth: ---------------------------------------------------------
OptimizeBandwidth: Computing matrix structure for: mgdyn2dharmonic...done.
OptimizeBandwidth: Half bandwidth without optimization: 81192
OptimizeBandwidth: 
OptimizeBandwidth: Bandwidth Optimization ...done.
OptimizeBandwidth: Half bandwidth after optimization: 1374
OptimizeBandwidth: ---------------------------------------------------------
Loading user function library: [MagnetoDynamics]...[MagnetoDynamicsCalcFields_Init]
Loading user function library: [MagnetoDynamics]...[MagnetoDynamicsCalcFields_bulk]
Loading user function library: [MagnetoDynamics]...[MagnetoDynamicsCalcFields]
OptimizeBandwidth: ---------------------------------------------------------
OptimizeBandwidth: Computing matrix structure for: calcfields...done.
OptimizeBandwidth: Half bandwidth without optimization: 81192
OptimizeBandwidth: 
OptimizeBandwidth: Bandwidth Optimization ...done.
OptimizeBandwidth: Half bandwidth after optimization: 1374
OptimizeBandwidth: ---------------------------------------------------------
Loading user function library: [ResultOutputSolve]...[ResultOutputSolver_Init]
Loading user function library: [ResultOutputSolve]...[ResultOutputSolver_bulk]
Loading user function library: [ResultOutputSolve]...[ResultOutputSolver]
Loading user function library: [SaveData]...[SaveLine_Init]
Loading user function library: [SaveData]...[SaveLine_bulk]
Loading user function library: [SaveData]...[SaveLine]
ElmerSolver: Number of timesteps to be saved: 10
MAIN: 
MAIN: -------------------------------------
MAIN:  Steady state iteration:            1
MAIN: -------------------------------------
MAIN: 
MagnetoDynamics2DHarmonic: ------------------------------------------------
MagnetoDynamics2DHarmonic: Solving equation for magnetic vector potential
MagnetoDynamics2DHarmonic: ------------------------------------------------
ComputeChange: NS (ITER=1) (NRM,RELC): ( 0.10257590E-03  2.0000000     ) :: mgdyn2dharmonic
Loading user function library: [MagnetoDynamics2D]...[MagnetoDynamics2DHarmonic_post]
ComputeChange: SS (ITER=1) (NRM,RELC): ( 0.10257590E-03  2.0000000     ) :: mgdyn2dharmonic
MagnetoDynamicsCalcFields:  Eddy current power:    0.0000000000000000
MagnetoDynamicsCalcFields:  (Electro)Magnetic Field Energy:    1.3929669183475728E-002
Loading user function library: [MagnetoDynamics]...[MagnetoDynamicsCalcFields_post]
ComputeChange: SS (ITER=1) (NRM,RELC): (  0.0000000      0.0000000     ) :: calcfields
SaveLine: -----------------------------------------
SaveLine: Saving data on lines to file: line.dat
SaveLine: ------------------------------------------
CreateListForSaving: Field Variables for Saving
SaveLine: Number of nodes in specified lines: 201
SaveLine: All done
Loading user function library: [SaveData]...[SaveLine_post]
ResultOutputSolver: -------------------------------------
ResultOutputSolver: Saving with prefix: Case
ResultOutputSolver: Creating list for saving - if not present
ResultOutputSolver: Saving in unstructured VTK XML (.vtu) format
VtuOutputSolver: Saving results in VTK XML format with prefix: case
VtuOutputSolver: Saving number of partitions: 1
WARNING:: WriteVtuXMLFile: Nonexistent variable: temperature
WARNING:: WriteVtuXMLFile: Nonexistent variable: heat conductivity
WARNING:: WriteVtuXMLFile: Nonexistent variable: temperature loads
WARNING:: WriteVtuXMLFile: Nonexistent variable: joule heating
WARNING:: WriteVtuXMLFile: Nonexistent variable: magnetic flux density
WARNING:: WriteVtuXMLFile: Nonexistent variable: phase surface
WriteVtuFile: Writing variable: joule heating e
WriteVtuFile: Writing variable: magnetic flux density e
WARNING:: WriteVtuXMLFile: Nonexistent variable: temperature
WARNING:: WriteVtuXMLFile: Nonexistent variable: heat conductivity
WARNING:: WriteVtuXMLFile: Nonexistent variable: temperature loads
WARNING:: WriteVtuXMLFile: Nonexistent variable: joule heating
WARNING:: WriteVtuXMLFile: Nonexistent variable: magnetic flux density
WARNING:: WriteVtuXMLFile: Nonexistent variable: phase surface
ResultOutputSolver: -------------------------------------
Loading user function library: [ResultOutputSolve]...[ResultOutputSolver_post]
ElmerSolver: *** Elmer Solver: ALL DONE ***
ElmerSolver: The end
SOLVER TOTAL TIME(CPU,REAL):        24.89       24.89
ELMER SOLVER FINISHED AT: 2020/10/01 14:14:18
