ELMER SOLVER (v 8.4) STARTED AT: 2020/09/01 09:20:33
ParCommInit:  Initialize #PEs:            1
MAIN: 
MAIN: =============================================================
MAIN: ElmerSolver finite element software, Welcome!
MAIN: This program is free software licensed under (L)GPL
MAIN: Copyright 1st April 1995 - , CSC - IT Center for Science Ltd.
MAIN: Webpage http://www.csc.fi/elmer, Email elmeradm@csc.fi
MAIN: Version: 8.4 (Rev: Release, Compiled: 2020-08-03)
MAIN:  Running one task without MPI parallelization.
MAIN:  Running with just one thread per task.
MAIN:  Lua interpreted linked in.
MAIN: =============================================================
LoadInputFile: Reading only "Run Control" section
MAIN: 
MAIN: 
MAIN: -------------------------------------
MAIN: Reading Model: ./case.sif
LoadInputFile: Scanning input file: ./case.sif
LoadInputFile: Scanning only size info
LoadInputFile: First time visiting
LoadInputFile: Reading base load of sif file
LoadInputFile: Loading input file: ./case.sif
LoadInputFile: Reading base load of sif file
LoadInputFile: Number of BCs: 2
LoadInputFile: Number of Body Forces: 2
LoadInputFile: Number of Initial Conditions: 1
LoadInputFile: Number of Materials: 3
LoadInputFile: Number of Equations: 2
LoadInputFile: Number of Solvers: 4
LoadInputFile: Number of Bodies: 4
Loading user function library: [StatMagSolve]...[StatMagSolver_Init0]
Loading user function library: [HeatSolve]...[HeatSolver_Init0]
Loading user function library: [SaveData]...[SaveScalars_Init0]
Loading user function library: [ResultOutputSolve]...[ResultOutputSolver_Init0]
LoadMesh: Base mesh name: ./.
MAIN: -------------------------------------
Loading user function library: [StatMagSolve]...[StatMagSolver_Init]
Loading user function library: [StatMagSolve]...[StatMagSolver_bulk]
Loading user function library: [StatMagSolve]...[StatMagSolver]
OptimizeBandwidth: ---------------------------------------------------------
OptimizeBandwidth: Computing matrix structure for: potential solver...done.
OptimizeBandwidth: Half bandwidth without optimization: 195325
OptimizeBandwidth: 
OptimizeBandwidth: Bandwidth Optimization ...done.
OptimizeBandwidth: Half bandwidth after optimization: 2383
OptimizeBandwidth: ---------------------------------------------------------
Loading user function library: [HeatSolve]...[HeatSolver_Init]
Loading user function library: [HeatSolve]...[HeatSolver_bulk]
Loading user function library: [HeatSolve]...[HeatSolver]
OptimizeBandwidth: ---------------------------------------------------------
OptimizeBandwidth: Computing matrix structure for: heat equation...done.
OptimizeBandwidth: Half bandwidth without optimization: 1654
OptimizeBandwidth: 
OptimizeBandwidth: Bandwidth Optimization ...done.
OptimizeBandwidth: Half bandwidth after optimization: 92
OptimizeBandwidth: ---------------------------------------------------------
Loading user function library: [SaveData]...[SaveScalars_Init]
Loading user function library: [SaveData]...[SaveScalars_bulk]
Loading user function library: [SaveData]...[SaveScalars]
Loading user function library: [ResultOutputSolve]...[ResultOutputSolver_Init]
Loading user function library: [ResultOutputSolve]...[ResultOutputSolver_bulk]
Loading user function library: [ResultOutputSolve]...[ResultOutputSolver]
ElmerSolver: Number of timesteps to be saved: 3
MAIN: 
MAIN: -------------------------------------
MAIN:  Steady state iteration:            1
MAIN: -------------------------------------
MAIN: 
StatMagSolve: 
StatMagSolve: ------------------------------------------------
StatMagSolve: Starting simulation
StatMagSolver: Assuming harmonic simulation
StatMagSolve: Magnetic Field Iteration: 1
StatMagSolve: Assembly done
StatMagSolve: Set boundaries done
ComputeChange: NS (ITER=1) (NRM,RELC): ( 0.80383193E-04  2.0000000     ) :: potential solver
StatMagSolve: Joule Heating (W):      4.5902E+03
StatMagSolve: All done, exiting
StatMagSolve: ------------------------------------------------
Loading user function library: [StatMagSolve]...[StatMagSolver_post]
ComputeChange: SS (ITER=1) (NRM,RELC): ( 0.80383193E-04  2.0000000     ) :: potential solver
HeatSolve: 
HeatSolve: 
HeatSolve: -------------------------------------
HeatSolve:  TEMPERATURE ITERATION           1
HeatSolve: -------------------------------------
HeatSolve: 
HeatSolve: Starting Assembly...
HeatSolve: Assembly done
ComputeChange: NS (ITER=1) (NRM,RELC): (  293.89479      2.0000000     ) :: heat equation
HeatSolve: iter:    1 Assembly: (s)    0.09    0.09
HeatSolve: iter:    1 Solve:    (s)    0.13    0.13
HeatSolve:  Result Norm   :    293.89478993705035
HeatSolve:  Relative Change :    2.0000000000000000
Loading user function library: [HeatSolve]...[HeatSolver_post]
ComputeChange: SS (ITER=1) (NRM,RELC): (  293.89479      2.0000000     ) :: heat equation
SaveScalars: -----------------------------------------
SaveScalars: Saving scalar values of various kinds
SaveScalars: Saving names of values to file: ./scalars.dat.names
SaveScalars: Saving values to file: ./scalars.dat
Loading user function library: [SaveData]...[SaveScalars_post]
ResultOutputSolver: -------------------------------------
ResultOutputSolver: Saving with prefix: Case
ResultOutputSolver: Creating list for saving - if not present
CreateListForSaving: Field Variables for Saving
ResultOutputSolver: Saving in unstructured VTK XML (.vtu) format
VtuOutputSolver: Saving results in VTK XML format with prefix: case
VtuOutputSolver: Saving number of partitions: 1
ResultOutputSolver: -------------------------------------
Loading user function library: [ResultOutputSolve]...[ResultOutputSolver_post]
ElmerSolver: *** Elmer Solver: ALL DONE ***
ElmerSolver: The end
SOLVER TOTAL TIME(CPU,REAL):       368.93      368.93
ELMER SOLVER FINISHED AT: 2020/09/01 09:26:42
