ELMER SOLVER (v 9.0) STARTED AT: 2021/08/06 09:07:09
ParCommInit:  Initialize #PEs:            1
MAIN: 
MAIN: =============================================================
MAIN: ElmerSolver finite element software, Welcome!
MAIN: This program is free software licensed under (L)GPL
MAIN: Copyright 1st April 1995 - , CSC - IT Center for Science Ltd.
MAIN: Webpage http://www.csc.fi/elmer, Email elmeradm@csc.fi
MAIN: Version: 9.0 (Rev: Release, Compiled: 2020-11-10)
MAIN:  Running one task without MPI parallelization.
MAIN:  Running with just one thread per task.
MAIN:  Lua interpreted linked in.
MAIN: =============================================================
LoadInputFile: Reading only "Run Control" section
MAIN: 
MAIN: 
MAIN: -------------------------------------
MAIN: Reading Model: case.sif
LoadInputFile: Scanning input file: case.sif
LoadInputFile: Scanning only size info
LoadInputFile: First time visiting
LoadInputFile: Reading base load of sif file
LoadInputFile: Loading input file: case.sif
LoadInputFile: Reading base load of sif file
CheckKeyword:  Unlisted keyword: [optimize node ordering] in section: [solver 5]
LoadInputFile: Number of BCs: 2
LoadInputFile: Number of Body Forces: 2
LoadInputFile: Number of Initial Conditions: 1
LoadInputFile: Number of Materials: 3
LoadInputFile: Number of Equations: 2
LoadInputFile: Number of Solvers: 5
LoadInputFile: Number of Bodies: 4
ElmerAsciiMesh: Base mesh name: ./.
MAIN: -------------------------------------
OptimizeBandwidth: ---------------------------------------------------------
OptimizeBandwidth: Computing matrix structure for: potential solver...done.
OptimizeBandwidth: Half bandwidth without optimization: 78477
OptimizeBandwidth: 
OptimizeBandwidth: Bandwidth Optimization ...done.
OptimizeBandwidth: Half bandwidth after optimization: 1706
OptimizeBandwidth: ---------------------------------------------------------
OptimizeBandwidth: ---------------------------------------------------------
OptimizeBandwidth: Computing matrix structure for: heat equation...done.
OptimizeBandwidth: Half bandwidth without optimization: 453
OptimizeBandwidth: 
OptimizeBandwidth: Bandwidth Optimization ...done.
OptimizeBandwidth: Half bandwidth after optimization: 49
OptimizeBandwidth: ---------------------------------------------------------
ElmerSolver: Number of timesteps to be saved: 10
MAIN: 
MAIN: -------------------------------------
MAIN:  Steady state iteration:            1
MAIN: -------------------------------------
MAIN: 
StatMagSolve: 
StatMagSolve: ------------------------------------------------
StatMagSolve: Starting simulation
StatMagSolver: Assuming harmonic simulation
StatMagSolve: Magnetic Field Iteration: 1
StatMagSolve: Assembly done
StatMagSolve: Set boundaries done
ComputeChange: NS (ITER=1) (NRM,RELC): ( 0.10404357E-03  2.0000000     ) :: potential solver
StatMagSolve: Joule Heating (W):      6.0885E+03
StatMagSolve: All done, exiting
StatMagSolve: ------------------------------------------------
ComputeChange: SS (ITER=1) (NRM,RELC): ( 0.10404357E-03  2.0000000     ) :: potential solver
HeatSolve: 
HeatSolve: 
HeatSolve: -------------------------------------
HeatSolve:  TEMPERATURE ITERATION           1
HeatSolve: -------------------------------------
HeatSolve: 
HeatSolve: Starting Assembly...
HeatSolve: Assembly done
ComputeChange: NS (ITER=1) (NRM,RELC): (  294.11647      2.0000000     ) :: heat equation
HeatSolve: iter:    1 Assembly: (s)    0.01    0.01
HeatSolve: iter:    1 Solve:    (s)    0.00    0.00
HeatSolve:  Result Norm   :    294.11646659745287
HeatSolve:  Relative Change :    2.0000000000000000
ComputeChange: SS (ITER=1) (NRM,RELC): (  294.11647      2.0000000     ) :: heat equation
SaveLine: -----------------------------------------
SaveLine: Saving data on lines to file: line.dat
SaveLine: ------------------------------------------
CreateListForSaving: Field Variables for Saving
SaveLine: Number of nodes in specified lines: 201
SaveLine: All done
SaveScalars: -----------------------------------------
SaveScalars: Saving scalar values of various kinds
SaveScalars: Saving names of values to file: ./scalars.dat.names
SaveScalars: Saving values to file: ./scalars.dat
ResultOutputSolver: -------------------------------------
ResultOutputSolver: Saving with prefix: Case
ResultOutputSolver: Creating list for saving - if not present
ResultOutputSolver: Saving in unstructured VTK XML (.vtu) format
VtuOutputSolver: Saving results in VTK XML format with prefix: case
VtuOutputSolver: Saving number of partitions: 1
WARNING:: WriteVtuXMLFile: Nonexistent variable: heat conductivity
WARNING:: WriteVtuXMLFile: Nonexistent variable: phase surface
WARNING:: WriteVtuXMLFile: Nonexistent variable: joule heating e
WARNING:: WriteVtuXMLFile: Nonexistent variable: magnetic flux density e
WARNING:: WriteVtuXMLFile: Nonexistent variable: heat conductivity
WARNING:: WriteVtuXMLFile: Nonexistent variable: phase surface
WARNING:: WriteVtuXMLFile: Nonexistent variable: joule heating e
WARNING:: WriteVtuXMLFile: Nonexistent variable: magnetic flux density e
ResultOutputSolver: -------------------------------------
SaveResult: -----------------------------------------
SaveResult: Saving results to file: ././case.result
SaveResult: -----------------------------------------
ElmerSolver: *** Elmer Solver: ALL DONE ***
ElmerSolver: The end
SOLVER TOTAL TIME(CPU,REAL):        31.68       31.68
ELMER SOLVER FINISHED AT: 2021/08/06 09:07:41
